LTspice 24.0.12 for Windows
Circuit: * C:\Users\tomma\Documents\uni\terzo anno\electronics\electronics lab\lab 5-6\prelab 5\Draft2.asc
Start Time: Tue Dec  3 11:08:35 2024
solver = Normal
Maximum thread count: 8
tnom = 27
temp = 27
method = modified trap
WARNING: Specified period is not longer than the sum of Trise, Tfall, and Ton for v2.  Increasing period to 0.001
Limiting rise time of source v2 to 1.95156e-19
Limiting fall time of source v2 to 1.95156e-19
WARNING: Node NC_02 is floating.
WARNING: Node NC_04 is floating.

WARNING: Less than two connections to node nc_01.  This node is used by m:u1:1.
WARNING: Less than two connections to node nc_02.  This node is used by m:u2:1.
WARNING: Less than two connections to node nc_03.  This node is used by m:u3:1.
WARNING: Less than two connections to node nc_04.  This node is used by m:u4:1.
WARNING: Less than two connections to node nc_05.  This node is used by m:u5:1.
WARNING: Less than two connections to node nc_06.  This node is used by m:u6:1.
Instance "m:u1:1": Length shorter than recommended for a level 1 MOSFET.
Instance "m:u2:1": Length shorter than recommended for a level 1 MOSFET.
Instance "m:u2:1": Width narrower than recommended for a level 1 MOSFET.
Instance "m:u3:1": Length shorter than recommended for a level 1 MOSFET.
Instance "m:u4:1": Length shorter than recommended for a level 1 MOSFET.
Instance "m:u4:1": Width narrower than recommended for a level 1 MOSFET.
Instance "m:u5:1": Length shorter than recommended for a level 1 MOSFET.
Instance "m:u6:1": Length shorter than recommended for a level 1 MOSFET.
Instance "m:u6:1": Width narrower than recommended for a level 1 MOSFET.
Direct Newton iteration for .op point succeeded.
Total elapsed time: 0.059 seconds.

