LTspice 24.0.12 for Windows
Circuit: * C:\Users\tomma\Documents\uni\terzo anno\electronics\electronics lab\lab 5-6\prelab 5\prob1.asc
Start Time: Tue Dec  3 10:00:59 2024
solver = Normal
Maximum thread count: 8
tnom = 27
temp = 27
method = modified trap
WARNING: Node NC_02 is floating.

WARNING: Less than two connections to node nc_01.  This node is used by m:u1:1.
WARNING: Less than two connections to node nc_02.  This node is used by m:u2:1.
Instance "m:u1:1": Length shorter than recommended for a level 1 MOSFET.
Instance "m:u2:1": Length shorter than recommended for a level 1 MOSFET.
Instance "m:u2:1": Width narrower than recommended for a level 1 MOSFET.
Direct Newton iteration for .op point succeeded.
Total elapsed time: 0.969 seconds.

