LTspice 24.0.12 for Windows
Circuit: * C:\Users\tomma\Documents\uni\terzo anno\electronics\electronics lab\lab3-4\prelab 3\last ex.asc
Start Time: Thu Nov 28 15:51:52 2024
solver = Normal
Maximum thread count: 8
tnom = 27
temp = 27
method = modified trap
Direct Newton iteration for .op point succeeded.

dbmax: MAX(mag(v(n003)))=(2.98708dB,0°) FROM 100 TO 1e+07

Measurement "bw" FAIL'ed

Total elapsed time: 0.132 seconds.

