LTspice 24.0.12 for Windows
Circuit: * C:\Users\tomma\Documents\uni\terzo anno\electronics\electronics lab\lab 5-6\prelab 6\Draft1.asc
Start Time: Sun Dec  8 17:47:49 2024
solver = Normal
Maximum thread count: 8
tnom = 27
temp = 27
method = modified trap
WARNING: Node N003 is floating.
WARNING: Node N008 is floating.
WARNING: Node N004 is floating.
WARNING: Node N009 is floating.
WARNING: Node N005 is floating.
WARNING: Node N010 is floating.

Instance "m:u1:1": Length shorter than recommended for a level 1 MOSFET.
Instance "m:u2:1": Length shorter than recommended for a level 1 MOSFET.
Instance "m:u2:1": Width narrower than recommended for a level 1 MOSFET.
Instance "m:u3:1": Length shorter than recommended for a level 1 MOSFET.
Instance "m:u4:1": Length shorter than recommended for a level 1 MOSFET.
Instance "m:u4:1": Width narrower than recommended for a level 1 MOSFET.
Instance "m:u5:1": Length shorter than recommended for a level 1 MOSFET.
Instance "m:u6:1": Length shorter than recommended for a level 1 MOSFET.
Instance "m:u6:1": Width narrower than recommended for a level 1 MOSFET.
Direct Newton iteration for .op point succeeded.
Total elapsed time: 0.184 seconds.

