LTspice 24.0.12 for Windows
Circuit: * C:\Users\tomma\Desktop\Draft1.asc
Start Time: Tue Nov 19 14:18:52 2024
solver = Normal
Maximum thread count: 8
tnom = 27
temp = 27
method = modified trap
Direct Newton iteration for .op point succeeded.
Total elapsed time: 0.074 seconds.

