LTspice 24.0.12 for Windows
Circuit: * C:\Users\tomma\Desktop\secondo es prelab.asc
Start Time: Tue Nov 19 12:11:32 2024
solver = Normal
Maximum thread count: 8
tnom = 27
temp = 27
method = modified trap
.OP point found by inspection.
Total elapsed time: 0.226 seconds.

